<?xml version="1.0" encoding="utf-8"?>
<LinearLayout xmlns:android="http://schemas.android.com/apk/res/android"
    xmlns:app="http://schemas.android.com/apk/res-auto"
    android:orientation="horizontal"
    android:layout_width="match_parent"
    android:layout_height="wrap_content"
    >

    <TextView
        android:layout_height="80dp"
        android:layout_width="0dp"
        android:layout_weight="1"
        android:text="新建品类"
        android:textSize="16sp"
        android:textColor="@color/black"
        android:gravity="center_vertical|left"
        android:layout_marginLeft="20dp"
        />

    <net.steamcrafted.materialiconlib.MaterialIconView
        android:id="@+id/icon"
        android:layout_width="48dp"
        android:layout_height="48dp"
        app:materialIcon="chevron_right"
        app:materialIconColor="@color/black"
        app:materialIconSize="24dp"
        android:layout_marginRight="10dp"
        android:scaleType="center"
        android:background="@android:color/transparent"
        android:layout_gravity="center_vertical"
        />

</LinearLayout>